  16

 C       -1.037225935    -1.575057079     0.267707912
 C       -1.708337045    -0.692852836    -0.473272941
 C       -1.940300404     0.707404075    -0.088479364
 C       -1.009041948     1.497621701     0.446255054
 C        2.732868692    -0.399002174     0.382328885
 C        2.511914031     0.465946545    -0.599791985
 H       -2.143698307    -0.972175001    -1.437026627
 H       -0.604491208    -1.340650761     1.230189495
 H       -0.877954350    -2.600126276    -0.033220247
 H        3.637983428    -0.412060550     0.974372413
 H        2.025495997    -1.165771090     0.670414088
 H        1.605947473     0.476343117    -1.192479427
 H        3.218026083     1.231192741    -0.891866332
 H       -1.184626031     2.531163345     0.706314557
 H        0.000968997     1.169351717     0.656481639
 H       -2.951061069     1.071129245    -0.293712793
16

 C        0.020341526    -1.496218373     0.058645511
 C       -1.252780557    -0.711946442    -0.072432699
 C       -1.293528451     0.622754843    -0.135300138
 C       -0.070828081     1.489109844    -0.053029021
 C        1.214362608    -0.621210736     0.473790004
 C        1.222148922     0.698487297    -0.309128963
 H       -2.158648998    -1.313484501    -0.128547977
 H       -0.114950764    -2.316203080     0.791886225
 H        0.235607739    -1.989611408    -0.913009420
 H        1.160153427    -0.406733507     1.558378455
 H        2.159983399    -1.169252234     0.309815327
 H        1.318154252     0.486249766    -1.391273973
 H        2.102026514     1.305572159    -0.030670432
 H       -0.148426579     2.325855087    -0.774547169
 H       -0.035454506     1.955341019     0.954403786
 H       -2.233314668     1.162539924    -0.235848986
